/*--------------------------------*- C++ -*----------------------------------*\
  =========                 |
  \\      /  F ield         | OpenFOAM: The Open Source CFD Toolbox
   \\    /   O peration     | Website:  https://openfoam.org
    \\  /    A nd           | Version:  9
     \\/     M anipulation  |
\*---------------------------------------------------------------------------*/
FoamFile
{
    format      binary;
    class       polyBoundaryMesh;
    location    "constant/polyMesh";
    object      boundary;
}
// * * * * * * * * * * * * * * * * * * * * * * * * * * * * * * * * * * * * * //

6
(
    aerofoil
    {
        type            wall;
        inGroups        List<word> 1(wall);
        nFaces          0;
        startFace       7782;
    }
    inlet
    {
        type            patch;
        inGroups        List<word> 1(freestream);
        nFaces          81;
        startFace       7782;
    }
    outlet
    {
        type            patch;
        inGroups        List<word> 1(freestream);
        nFaces          137;
        startFace       7863;
    }
    back
    {
        type            empty;
        inGroups        List<word> 1(empty);
        nFaces          4000;
        startFace       8000;
    }
    front
    {
        type            empty;
        inGroups        List<word> 1(empty);
        nFaces          4000;
        startFace       12000;
    }
    procBoundary3to2
    {
        type            processor;
        inGroups        List<word> 1(processor);
        nFaces          218;
        startFace       16000;
        matchTolerance  0.0001;
        myProcNo        3;
        neighbProcNo    2;
    }
)

// ************************************************************************* //
