/*--------------------------------*- C++ -*----------------------------------*\
  =========                 |
  \\      /  F ield         | OpenFOAM: The Open Source CFD Toolbox
   \\    /   O peration     | Website:  https://openfoam.org
    \\  /    A nd           | Version:  9
     \\/     M anipulation  |
\*---------------------------------------------------------------------------*/
FoamFile
{
    format      binary;
    class       polyBoundaryMesh;
    location    "constant/polyMesh";
    object      boundary;
}
// * * * * * * * * * * * * * * * * * * * * * * * * * * * * * * * * * * * * * //

6
(
    aerofoil
    {
        type            wall;
        inGroups        List<word> 1(wall);
        nFaces          0;
        startFace       7833;
    }
    inlet
    {
        type            patch;
        inGroups        List<word> 1(freestream);
        nFaces          106;
        startFace       7833;
    }
    outlet
    {
        type            patch;
        inGroups        List<word> 1(freestream);
        nFaces          0;
        startFace       7939;
    }
    back
    {
        type            empty;
        inGroups        List<word> 1(empty);
        nFaces          4000;
        startFace       7939;
    }
    front
    {
        type            empty;
        inGroups        List<word> 1(empty);
        nFaces          4000;
        startFace       11939;
    }
    procBoundary0to1
    {
        type            processor;
        inGroups        List<word> 1(processor);
        nFaces          228;
        startFace       15939;
        matchTolerance  0.0001;
        myProcNo        0;
        neighbProcNo    1;
    }
)

// ************************************************************************* //
