/*--------------------------------*- C++ -*----------------------------------*\
  =========                 |
  \\      /  F ield         | OpenFOAM: The Open Source CFD Toolbox
   \\    /   O peration     | Website:  https://openfoam.org
    \\  /    A nd           | Version:  9
     \\/     M anipulation  |
\*---------------------------------------------------------------------------*/
FoamFile
{
    format      binary;
    class       polyBoundaryMesh;
    location    "constant/polyMesh";
    object      boundary;
}
// * * * * * * * * * * * * * * * * * * * * * * * * * * * * * * * * * * * * * //

7
(
    aerofoil
    {
        type            wall;
        inGroups        List<word> 1(wall);
        nFaces          27;
        startFace       7750;
    }
    inlet
    {
        type            patch;
        inGroups        List<word> 1(freestream);
        nFaces          6;
        startFace       7777;
    }
    outlet
    {
        type            patch;
        inGroups        List<word> 1(freestream);
        nFaces          16;
        startFace       7783;
    }
    back
    {
        type            empty;
        inGroups        List<word> 1(empty);
        nFaces          4000;
        startFace       7799;
    }
    front
    {
        type            empty;
        inGroups        List<word> 1(empty);
        nFaces          4000;
        startFace       11799;
    }
    procBoundary2to1
    {
        type            processor;
        inGroups        List<word> 1(processor);
        nFaces          233;
        startFace       15799;
        matchTolerance  0.0001;
        myProcNo        2;
        neighbProcNo    1;
    }
    procBoundary2to3
    {
        type            processor;
        inGroups        List<word> 1(processor);
        nFaces          218;
        startFace       16032;
        matchTolerance  0.0001;
        myProcNo        2;
        neighbProcNo    3;
    }
)

// ************************************************************************* //
