/*--------------------------------*- C++ -*----------------------------------*\
  =========                 |
  \\      /  F ield         | OpenFOAM: The Open Source CFD Toolbox
   \\    /   O peration     | Website:  https://openfoam.org
    \\  /    A nd           | Version:  9
     \\/     M anipulation  |
\*---------------------------------------------------------------------------*/
FoamFile
{
    format      binary;
    class       polyBoundaryMesh;
    location    "constant/polyMesh";
    object      boundary;
}
// * * * * * * * * * * * * * * * * * * * * * * * * * * * * * * * * * * * * * //

7
(
    aerofoil
    {
        type            wall;
        inGroups        List<word> 1(wall);
        nFaces          93;
        startFace       7716;
    }
    inlet
    {
        type            patch;
        inGroups        List<word> 1(freestream);
        nFaces          7;
        startFace       7809;
    }
    outlet
    {
        type            patch;
        inGroups        List<word> 1(freestream);
        nFaces          7;
        startFace       7816;
    }
    back
    {
        type            empty;
        inGroups        List<word> 1(empty);
        nFaces          4000;
        startFace       7823;
    }
    front
    {
        type            empty;
        inGroups        List<word> 1(empty);
        nFaces          4000;
        startFace       11823;
    }
    procBoundary1to0
    {
        type            processor;
        inGroups        List<word> 1(processor);
        nFaces          228;
        startFace       15823;
        matchTolerance  0.0001;
        myProcNo        1;
        neighbProcNo    0;
    }
    procBoundary1to2
    {
        type            processor;
        inGroups        List<word> 1(processor);
        nFaces          233;
        startFace       16051;
        matchTolerance  0.0001;
        myProcNo        1;
        neighbProcNo    2;
    }
)

// ************************************************************************* //
